@<TRIPOS>MOLECULE
MGLab34.pdb
170 178 7 0 0
SMALL
USER_CHARGES


@<TRIPOS>ATOM
      1 C1         25.6250  110.4330   34.1210 C.3       1 MGO    0.0000
      2 O1         24.6580  110.2900   35.2000 O.3       1 MGO    0.0000
      3 C2         25.7310  109.1000   33.3480 C.3       1 MGO    0.0000
      4 O2         24.4530  108.8150   32.8140 O.3       1 MGO    0.0000
      5 C3         26.2070  107.9810   34.2920 C.3       1 MGO    0.0000
      6 O3         26.3830  106.7910   33.5490 O.3       1 MGO    0.0000
      7 C4         27.5440  108.3680   34.9490 C.3       1 MGO    0.0000
      8 C5         27.4190  109.7180   35.6810 C.3       1 MGO    0.0000
      9 O5         26.9180  110.7010   34.7280 O.3       1 MGO    0.0000
     10 C6         28.7490  110.2590   36.2240 C.3       1 MGO    0.0000
     11 O6         29.7280  110.3780   35.2120 O.3       1 MGO    0.0000
     12 H1         25.3480  111.2340   33.4500 H         1 MGO    0.0000
     13 H2         26.4420  109.1920   32.5250 H         1 MGO    0.0000
     14 H2         23.8220  108.7810   33.5370 H         1 MGO    0.0000
     15 H3         25.4580  107.8100   35.0670 H         1 MGO    0.0000
     16 H3         27.0420  106.9500   32.8700 H         1 MGO    0.0000
     17 H4         28.3080  108.4470   34.1740 H         1 MGO    0.0000
     18 H5         26.7340  109.6010   36.5220 H         1 MGO    0.0000
     19 H61        28.5790  111.2400   36.6680 H         1 MGO    0.0000
     20 H62        29.1200  109.5940   37.0000 H         1 MGO    0.0000
     21 H6         29.4190  111.0130   34.5620 H         1 MGO    0.0000
     22 C1         21.4290  112.4820   36.8140 C.3       2 MGO    0.0000
     23 O1         21.7960  112.0130   38.1430 O.3       2 MGO    0.0000
     24 C2         21.0940  111.2720   35.9130 C.3       2 MGO    0.0000
     25 O2         20.0260  110.5720   36.5210 O.3       2 MGO    0.0000
     26 C3         22.3310  110.3720   35.7570 C.3       2 MGO    0.0000
     27 O3         22.0310  109.3090   34.8740 O.3       2 MGO    0.0000
     28 C4         23.5110  111.1770   35.1890 C.3       2 MGO    0.0000
     29 C5         23.8110  112.3830   36.1030 C.3       2 MGO    0.0000
     30 O5         22.5830  113.1600   36.2500 O.3       2 MGO    0.0000
     31 C6         24.8800  113.3480   35.5690 C.3       2 MGO    0.0000
     32 O6         24.5590  113.8290   34.2790 O.3       2 MGO    0.0000
     33 H1         20.5780  113.1490   36.8610 H         2 MGO    0.0000
     34 H2         20.7770  111.6080   34.9250 H         2 MGO    0.0000
     35 H2         20.2930  110.3190   37.4070 H         2 MGO    0.0000
     36 H3         22.6090  109.9590   36.7280 H         2 MGO    0.0000
     37 H3         21.7910  109.6790   34.0220 H         2 MGO    0.0000
     38 H4         23.2560  111.5200   34.1850 H         2 MGO    0.0000
     39 H5         24.1540  112.0050   37.0660 H         2 MGO    0.0000
     40 H61        24.9640  114.1960   36.2490 H         2 MGO    0.0000
     41 H62        25.8440  112.8460   35.5350 H         2 MGO    0.0000
     42 H6         23.7400  114.3260   34.3350 H         2 MGO    0.0000
     43 C1         21.3320  113.0540   42.1910 C.3       3 MGO    0.0000
     44 O1         22.0130  111.8050   42.5090 O.3       3 MGO    0.0000
     45 C2         20.0410  112.7460   41.4020 C.3       3 MGO    0.0000
     46 O2         19.2140  111.9550   42.2320 O.3       3 MGO    0.0000
     47 C3         20.3890  112.0130   40.0940 C.3       3 MGO    0.0000
     48 O3         19.2090  111.8180   39.3410 O.3       3 MGO    0.0000
     49 C4         21.3840  112.8410   39.2610 C.3       3 MGO    0.0000
     50 C5         22.6400  113.1820   40.0880 C.3       3 MGO    0.0000
     51 O5         22.2080  113.8210   41.3240 O.3       3 MGO    0.0000
     52 C6         23.6000  114.1590   39.3930 C.3       3 MGO    0.0000
     53 O6         22.9590  115.3620   39.0240 O.3       3 MGO    0.0000
     54 H1         21.0990  113.6130   43.0880 H         3 MGO    0.0000
     55 H2         19.5130  113.6690   41.1590 H         3 MGO    0.0000
     56 H2         19.6990  111.1660   42.4820 H         3 MGO    0.0000
     57 H3         20.8300  111.0420   40.3240 H         3 MGO    0.0000
     58 H3         18.8290  112.6770   39.1430 H         3 MGO    0.0000
     59 H4         20.8970  113.7640   38.9440 H         3 MGO    0.0000
     60 H5         23.1880  112.2610   40.2930 H         3 MGO    0.0000
     61 H61        24.4220  114.3900   40.0700 H         3 MGO    0.0000
     62 H62        24.0130  113.6900   38.5040 H         3 MGO    0.0000
     63 H6         22.6510  115.8010   39.8200 H         3 MGO    0.0000
     64 C1         23.9280  110.0510   45.8500 C.3       4 MGO    0.0000
     65 O1         24.8620  109.3570   44.9730 O.3       4 MGO    0.0000
     66 C2         22.4830  109.6080   45.5310 C.3       4 MGO    0.0000
     67 O2         22.4190  108.2050   45.6990 O.3       4 MGO    0.0000
     68 C3         22.1060  110.0120   44.0950 C.3       4 MGO    0.0000
     69 O3         20.7580  109.6650   43.8480 O.3       4 MGO    0.0000
     70 C4         22.2770  111.5280   43.9080 C.3       4 MGO    0.0000
     71 C5         23.7340  111.9240   44.2230 C.3       4 MGO    0.0000
     72 O5         24.0420  111.4740   45.5770 O.3       4 MGO    0.0000
     73 C6         24.0190  113.4320   44.1870 C.3       4 MGO    0.0000
     74 O6         23.1540  114.1530   45.0400 O.3       4 MGO    0.0000
     75 H1         24.1500  109.8430   46.8880 H         4 MGO    0.0000
     76 H2         21.7800  110.0760   46.2220 H         4 MGO    0.0000
     77 H2         23.0680  107.7990   45.1190 H         4 MGO    0.0000
     78 H3         22.7450  109.4840   43.3860 H         4 MGO    0.0000
     79 H3         20.2030  110.1370   44.4740 H         4 MGO    0.0000
     80 H4         21.5910  112.0500   44.5770 H         4 MGO    0.0000
     81 H5         24.3820  111.4430   43.4910 H         4 MGO    0.0000
     82 H61        25.0490  113.6050   44.5000 H         4 MGO    0.0000
     83 H62        23.9090  113.8010   43.1690 H         4 MGO    0.0000
     84 H6         23.3080  113.8670   45.9430 H         4 MGO    0.0000
     85 C1         28.6730  107.5530   45.1940 C.3       5 MGO    0.0000
     86 O1         28.4390  106.9740   43.8790 O.3       5 MGO    0.0000
     87 C2         27.5970  107.0490   46.1810 C.3       5 MGO    0.0000
     88 O2         27.7010  105.6410   46.2420 O.3       5 MGO    0.0000
     89 C3         26.1990  107.4890   45.7100 C.3       5 MGO    0.0000
     90 O3         25.2400  107.0920   46.6710 O.3       5 MGO    0.0000
     91 C4         26.1510  109.0190   45.5490 C.3       5 MGO    0.0000
     92 C5         27.2490  109.4900   44.5770 C.3       5 MGO    0.0000
     93 O5         28.5240  108.9930   45.0720 O.3       5 MGO    0.0000
     94 C6         27.3780  111.0160   44.4710 C.3       5 MGO    0.0000
     95 O6         27.6080  111.6190   45.7280 O.3       5 MGO    0.0000
     96 H1         29.6590  107.3020   45.5620 H         5 MGO    0.0000
     97 H2         27.7760  107.4550   47.1780 H         5 MGO    0.0000
     98 H2         27.5900  105.2880   45.3560 H         5 MGO    0.0000
     99 H3         25.9650  107.0160   44.7560 H         5 MGO    0.0000
    100 H3         25.4540  107.5130   47.5070 H         5 MGO    0.0000
    101 H4         26.3080  109.4840   46.5240 H         5 MGO    0.0000
    102 H5         27.0320  109.0990   43.5820 H         5 MGO    0.0000
    103 H61        28.2080  111.2570   43.8070 H         5 MGO    0.0000
    104 H62        26.4680  111.4280   44.0420 H         5 MGO    0.0000
    105 H6         28.4450  111.2970   46.0710 H         5 MGO    0.0000
    106 C1         30.6200  105.2940   40.6880 C.3       6 UNK    0.0000
    107 O1         29.5480  105.7280   39.7980 O.3       6 UNK    0.0000
    108 C2         30.0510  104.3220   41.7440 C.3       6 UNK    0.0000
    109 O2         29.5160  103.2100   41.0540 O.3       6 UNK    0.0000
    110 C3         28.9750  105.0330   42.5820 C.3       6 UNK    0.0000
    111 C4         29.5540  106.2970   43.2430 C.3       6 UNK    0.0000
    112 C5         30.1560  107.2330   42.1720 C.3       6 UNK    0.0000
    113 O5         31.1170  106.4630   41.3890 O.3       6 UNK    0.0000
    114 C6         30.9160  108.4540   42.7150 C.3       6 UNK    0.0000
    115 N6         32.0090  108.0530   43.5960 N.am      6 UNK    0.0000
    116 O31        28.5160  104.1550   43.5900 O.3       6 UNK    0.0000
    117 C61        32.1920  108.4880   44.8520 C.2       6 UNK    0.0000
    118 C61        33.3600  107.8600   45.6230 C.3       6 UNK    0.0000
    119 C613       34.2740  109.0010   46.1290 C.3       6 UNK    0.0000
    120 N613       34.8840  109.6620   44.9800 N.4       6 UNK    1.0000
    121 O          31.4810  109.3370   45.3900 O.2       6 UNK    0.0000
    122 C          37.3900  107.2930   48.5590 C.ar      6 UNK    0.0000
    123 O          38.3720  106.7530   49.3390 O.3       6 UNK    0.0000
    124 C          37.3590  107.0020   47.1970 C.ar      6 UNK    0.0000
    125 C          36.3550  107.5530   46.4080 C.ar      6 UNK    0.0000
    126 C          35.3860  108.3920   46.9710 C.ar      6 UNK    0.0000
    127 C          35.4360  108.6700   48.3390 C.ar      6 UNK    0.0000
    128 C          36.4350  108.1240   49.1380 C.ar      6 UNK    0.0000
    129 H1         31.4170  104.8140   40.1360 H         6 UNK    0.0000
    130 H2         30.8430  103.9730   42.4090 H         6 UNK    0.0000
    131 H2         28.8580  103.5270   40.4300 H         6 UNK    0.0000
    132 H3         28.1350  105.3110   41.9430 H         6 UNK    0.0000
    133 H31        28.1150  103.3910   43.1690 H         6 UNK    0.0000
    134 H4         30.3260  105.9980   43.9540 H         6 UNK    0.0000
    135 H5         29.3460  107.6010   41.5410 H         6 UNK    0.0000
    136 H61        31.3330  109.0090   41.8750 H         6 UNK    0.0000
    137 H62        30.2220  109.1100   43.2360 H         6 UNK    0.0000
    138 H6         32.6470  107.3600   43.2310 H         6 UNK    0.0000
    139 H611       33.9180  107.1780   44.9790 H         6 UNK    0.0000
    140 H612       32.9640  107.2980   46.4700 H         6 UNK    0.0000
    141 H611       33.7070  109.7130   46.7130 H         6 UNK    0.0000
    142 H          38.2690  107.0390   50.2680 H         6 UNK    0.0000
    143 H          38.0910  106.3680   46.7670 H         6 UNK    0.0000
    144 H          36.3300  107.3300   45.3720 H         6 UNK    0.0000
    145 H          34.7070  109.3030   48.7770 H         6 UNK    0.0000
    146 H          36.4680  108.3390   50.1750 H         6 UNK    0.0000
    147 HN1        34.1625  110.0743   44.4060 H         6 UNK    0.0000
    148 HN2        35.3999  108.9845   44.4369 H         6 UNK    0.0000
    149 HN3        35.5122  110.3845   45.3016 H         6 UNK    0.0000
    150 C1         29.0160  106.5180   35.6630 C.3       7 MGO    0.0000
    151 O1         27.8520  107.3490   35.9350 O.3       7 MGO    0.0000
    152 C2         28.7580  105.0790   36.1670 C.3       7 MGO    0.0000
    153 O2         27.5970  104.6010   35.5160 O.3       7 MGO    0.0000
    154 C3         28.5810  105.0710   37.6950 C.3       7 MGO    0.0000
    155 O3         28.4210  103.7380   38.1400 O.3       7 MGO    0.0000
    156 C4         29.8180  105.6850   38.3710 C.3       7 MGO    0.0000
    157 C5         30.0130  107.1260   37.8600 C.3       7 MGO    0.0000
    158 O5         30.1370  107.0710   36.4070 O.3       7 MGO    0.0000
    159 C6         31.2680  107.8360   38.3840 C.3       7 MGO    0.0000
    160 O6         32.4390  107.0790   38.1560 O.3       7 MGO    0.0000
    161 H1         29.2340  106.4970   34.6030 H         7 MGO    0.0000
    162 H2         29.5960  104.4310   35.9080 H         7 MGO    0.0000
    163 H2         26.8700  105.1970   35.7130 H         7 MGO    0.0000
    164 H3         27.6950  105.6460   37.9670 H         7 MGO    0.0000
    165 H3         29.1990  103.2370   37.8860 H         7 MGO    0.0000
    166 H4         30.6930  105.0810   38.1260 H         7 MGO    0.0000
    167 H5         29.1460  107.7160   38.1590 H         7 MGO    0.0000
    168 H61        31.3670  108.7990   37.8820 H         7 MGO    0.0000
    169 H62        31.1620  108.0230   39.4500 H         7 MGO    0.0000
    170 H6         32.5570  106.9780   37.2090 H         7 MGO    0.0000
@<TRIPOS>BOND
     1    1    2 1
     2    1    3 1
     3    1    9 1
     4    1   12 1
     5    2   28 1
     6    3    4 1
     7    3    5 1
     8    3   13 1
     9    4   14 1
    10    5    6 1
    11    5    7 1
    12    5   15 1
    13    6   16 1
    14    7    8 1
    15    7   17 1
    16    7  151 1
    17    8    9 1
    18    8   10 1
    19    8   18 1
    20   10   11 1
    21   10   19 1
    22   10   20 1
    23   11   21 1
    24   22   23 1
    25   22   24 1
    26   22   30 1
    27   22   33 1
    28   23   49 1
    29   24   25 1
    30   24   26 1
    31   24   34 1
    32   25   35 1
    33   26   27 1
    34   26   28 1
    35   26   36 1
    36   27   37 1
    37   28   29 1
    38   28   38 1
    39   29   30 1
    40   29   31 1
    41   29   39 1
    42   31   32 1
    43   31   40 1
    44   31   41 1
    45   32   42 1
    46   43   44 1
    47   43   45 1
    48   43   51 1
    49   43   54 1
    50   44   70 1
    51   45   46 1
    52   45   47 1
    53   45   55 1
    54   46   56 1
    55   47   48 1
    56   47   49 1
    57   47   57 1
    58   48   58 1
    59   49   50 1
    60   49   59 1
    61   50   51 1
    62   50   52 1
    63   50   60 1
    64   52   53 1
    65   52   61 1
    66   52   62 1
    67   53   63 1
    68   64   65 1
    69   64   66 1
    70   64   72 1
    71   64   75 1
    72   65   91 1
    73   66   67 1
    74   66   68 1
    75   66   76 1
    76   67   77 1
    77   68   69 1
    78   68   70 1
    79   68   78 1
    80   69   79 1
    81   70   71 1
    82   70   80 1
    83   71   72 1
    84   71   73 1
    85   71   81 1
    86   73   74 1
    87   73   82 1
    88   73   83 1
    89   74   84 1
    90   85   86 1
    91   85   87 1
    92   85   93 1
    93   85   96 1
    94   86  111 1
    95   87   88 1
    96   87   89 1
    97   87   97 1
    98   88   98 1
    99   89   90 1
   100   89   91 1
   101   89   99 1
   102   90  100 1
   103   91   92 1
   104   91  101 1
   105   92   93 1
   106   92   94 1
   107   92  102 1
   108   94   95 1
   109   94  103 1
   110   94  104 1
   111   95  105 1
   112  106  107 1
   113  106  108 1
   114  106  113 1
   115  106  129 1
   116  107  156 1
   117  108  109 1
   118  108  110 1
   119  108  130 1
   120  109  131 1
   121  110  111 1
   122  110  132 1
   123  110  116 1
   124  111  112 1
   125  111  134 1
   126  112  113 1
   127  112  114 1
   128  112  135 1
   129  114  115 1
   130  114  136 1
   131  114  137 1
   132  115  138 1
   133  115  117 am
   134  116  133 1
   135  117  121 2
   136  117  118 1
   137  118  139 1
   138  118  140 1
   139  118  119 1
   140  119  141 1
   141  119  120 1
   142  119  126 1
   143  122  123 1
   144  122  124 ar
   145  122  128 ar
   146  123  142 1
   147  124  143 1
   148  124  125 ar
   149  125  144 1
   150  125  126 ar
   151  126  127 ar
   152  127  145 1
   153  127  128 ar
   154  128  146 1
   155  150  151 1
   156  150  152 1
   157  150  158 1
   158  150  161 1
   159  152  153 1
   160  152  154 1
   161  152  162 1
   162  153  163 1
   163  154  155 1
   164  154  156 1
   165  154  164 1
   166  155  165 1
   167  156  157 1
   168  156  166 1
   169  157  158 1
   170  157  159 1
   171  157  167 1
   172  159  160 1
   173  159  168 1
   174  159  169 1
   175  160  170 1
   176  147  120 1
   177  148  120 1
   178  149  120 1
@<TRIPOS>SUBSTRUCTURE
     1 MGO     1 RESIDUE           4 A     MGO     2 ROOT
     2 MGO    22 RESIDUE           4 A     MGO     2
     3 MGO    43 RESIDUE           4 A     MGO     2
     4 MGO    64 RESIDUE           4 A     MGO     2
     5 MGO    85 RESIDUE           4 A     MGO     2
     6 UNK   106 RESIDUE           4 A     UNK     2
     7 MGO   150 RESIDUE           4 A     MGO     2
